# generated using pymatgen
data_Li3Ni2(PO4)3
_symmetry_space_group_name_H-M   'P 1'
_cell_length_a   9.77668357
_cell_length_b   9.77668357
_cell_length_c   9.74895014
_cell_angle_alpha   86.60846923
_cell_angle_beta   86.60846923
_cell_angle_gamma   86.32193939
_symmetry_Int_Tables_number   1
_chemical_formula_structural   Li3Ni2(PO4)3
_chemical_formula_sum   'Li12 Ni8 P12 O48'
_cell_volume   926.85647552
_cell_formula_units_Z   4
loop_
 _symmetry_equiv_pos_site_id
 _symmetry_equiv_pos_as_xyz
  1  'x, y, z'
loop_
 _atom_site_type_symbol
 _atom_site_label
 _atom_site_symmetry_multiplicity
 _atom_site_fract_x
 _atom_site_fract_y
 _atom_site_fract_z
 _atom_site_occupancy
  Li  Li0  1  0.27256200  0.45005900  0.60101600  1
  Li  Li1  1  0.31667200  0.98085700  0.53663000  1
  Li  Li2  1  0.84686100  0.76956500  0.71517100  1
  Li  Li3  1  0.54994100  0.72743800  0.39898400  1
  Li  Li4  1  0.01914300  0.68332800  0.46337000  1
  Li  Li5  1  0.46564900  0.26628000  0.09603700  1
  Li  Li6  1  0.66308800  0.02513600  0.97759000  1
  Li  Li7  1  0.97486400  0.33691200  0.02241000  1
  Li  Li8  1  0.23043500  0.15313900  0.28482900  1
  Li  Li9  1  0.73372000  0.53435100  0.90396300  1
  Li  Li10  1  0.01315600  0.45887500  0.74452300  1
  Li  Li11  1  0.54112500  0.98684400  0.25547700  1
  Ni  Ni12  1  0.75504300  0.47204000  0.28653500  1
  Ni  Ni13  1  0.03191200  0.96808800  0.00000000  1
  Ni  Ni14  1  0.25112000  0.53466800  0.21895800  1
  Ni  Ni15  1  0.52796000  0.24495700  0.71346500  1
  Ni  Ni16  1  0.46533200  0.74888000  0.78104200  1
  Ni  Ni17  1  0.74860800  0.25139200  0.50000000  1
  Ni  Ni18  1  0.24926500  0.75073500  0.00000000  1
  Ni  Ni19  1  0.96514000  0.03486000  0.50000000  1
  P  P20  1  0.17235300  0.85617700  0.29991500  1
  P  P21  1  0.67052500  0.54655700  0.60653300  1
  P  P22  1  0.82482400  0.15409300  0.20285400  1
  P  P23  1  0.04854600  0.35262200  0.42467200  1
  P  P24  1  0.35507900  0.04477500  0.92171300  1
  P  P25  1  0.14382300  0.82764700  0.70008500  1
  P  P26  1  0.54914700  0.67595500  0.10279100  1
  P  P27  1  0.32404500  0.45085300  0.89720900  1
  P  P28  1  0.64737800  0.95145400  0.57532800  1
  P  P29  1  0.95522500  0.64492100  0.07828700  1
  P  P30  1  0.45344300  0.32947500  0.39346700  1
  P  P31  1  0.84590700  0.17517600  0.79714600  1
  O  O32  1  0.61393400  0.33588800  0.37205100  1
  O  O33  1  0.62214000  0.11194900  0.57954400  1
  O  O34  1  0.88805100  0.37786000  0.42045600  1
  O  O35  1  0.89332300  0.03460700  0.86539900  1
  O  O36  1  0.30653400  0.40736000  0.05284900  1
  O  O37  1  0.91402600  0.54707700  0.97270300  1
  O  O38  1  0.46473800  0.38117700  0.85183200  1
  O  O39  1  0.87638300  0.17088900  0.63681900  1
  O  O40  1  0.11639200  0.39669800  0.28249300  1
  O  O41  1  0.10739000  0.97153100  0.63118300  1
  O  O42  1  0.68852200  0.18299100  0.83599100  1
  O  O43  1  0.58105100  0.79192700  0.19186800  1
  O  O44  1  0.82911100  0.12361700  0.36318100  1
  O  O45  1  0.77890500  0.58799700  0.70156400  1
  O  O46  1  0.81700900  0.31147800  0.16400900  1
  O  O47  1  0.66411200  0.38606600  0.62794900  1
  O  O48  1  0.91509200  0.29849000  0.84378300  1
  O  O49  1  0.52579200  0.61319500  0.64264000  1
  O  O50  1  0.16500400  0.87667900  0.13885200  1
  O  O51  1  0.96539300  0.10667700  0.13460100  1
  O  O52  1  0.91080600  0.79654500  0.04199100  1
  O  O53  1  0.09016200  0.19642400  0.43853100  1
  O  O54  1  0.70151000  0.08490800  0.15621700  1
  O  O55  1  0.04859700  0.72044300  0.65815300  1
  O  O56  1  0.38804100  0.66617800  0.12563800  1
  O  O57  1  0.11668300  0.62324500  0.08276200  1
  O  O58  1  0.45292300  0.08597400  0.02729700  1
  O  O59  1  0.12332100  0.83499600  0.86114800  1
  O  O60  1  0.37675500  0.88331700  0.91723800  1
  O  O61  1  0.20345500  0.08919400  0.95800900  1
  O  O62  1  0.89514600  0.60782200  0.22514100  1
  O  O63  1  0.60330200  0.88360800  0.71750700  1
  O  O64  1  0.39217800  0.10485400  0.77485900  1
  O  O65  1  0.29830600  0.80223200  0.65700500  1
  O  O66  1  0.80357600  0.90983800  0.56146900  1
  O  O67  1  0.09000500  0.43837400  0.54033700  1
  O  O68  1  0.40819400  0.30059900  0.54720900  1
  O  O69  1  0.61882300  0.53526200  0.14816800  1
  O  O70  1  0.02846900  0.89261000  0.36881700  1
  O  O71  1  0.59264000  0.69346600  0.94715100  1
  O  O72  1  0.56162600  0.90999500  0.45966300  1
  O  O73  1  0.27955700  0.95140300  0.34184700  1
  O  O74  1  0.19776800  0.70169400  0.34299500  1
  O  O75  1  0.41200300  0.22109500  0.29843600  1
  O  O76  1  0.33382200  0.61195900  0.87436200  1
  O  O77  1  0.38680500  0.47420800  0.35736000  1
  O  O78  1  0.20807300  0.41894900  0.80813200  1
  O  O79  1  0.69940100  0.59180600  0.45279100  1
